18

 C      -0.084893   -0.016130   -0.039892
 C      -0.056264   -0.065564    1.490443
 C       1.377120   -0.016481    2.027277
 C       2.136655    1.200050    1.490300
 C       2.108026    1.249484   -0.040035
 C       0.674642    1.200401   -0.576870
 H       3.164346    1.185976    1.845024
 H       2.609934    2.146347   -0.394860
 H       1.683672    2.108810    1.886645
 H       1.369209   -0.002651    3.114440
 H       1.901589   -0.925258    1.732007
 H      -0.558172   -0.962427    1.845267
 H       0.368090   -0.924890   -0.436238
 H      -1.112584   -0.002056   -0.394617
 H       0.682553    1.186571   -1.664032
 H       0.150173    2.109178   -0.281600
 H      -0.616471    0.781312    1.886795
 H       2.668233    0.402608   -0.436388

