12

 C        0.174640    1.096374    0.000000
 C       -0.649075    0.024667    0.000000
 N        0.097270   -1.131110    0.000000
 C        1.329736   -0.756355    0.000000
 N        1.452905    0.584025    0.000000
 C       -2.143638   -0.016319    0.000000
 H       -2.558762    0.985817    0.000002
 H       -2.510521   -0.540836   -0.876426
 H        2.178909   -1.410029    0.000000
 H        2.300803    1.098251    0.000001
 H       -0.021114    2.147030   -0.000001
 H       -2.510520   -0.540838    0.876426

