   12
 
 C    -3.951570     7.702780    -1.917200
 C    -4.874490     8.212650    -0.803580
 N    -5.670900     7.133500    -0.239770
 C    -5.757200     9.363460    -1.268790
 H    -4.261870     8.609440     0.003230
 O    -5.636750     9.968740    -2.283260
 H    -6.567170     9.613930    -0.569480
 H    -6.370660     6.814860    -0.882680
 H    -6.125390     7.397470     0.612120
 H    -4.541920     7.309250    -2.718150
 H    -3.293610     6.949430    -1.537130
 H    -3.359510     8.515520    -2.283020
