12

 C       0.000000    0.000000   -0.020487
 H       0.000000    0.000000    1.055113
 C       1.200539    0.000000   -0.713618
 C       1.200539    0.000000   -2.099882
 C       0.000000    0.000000   -2.793013
 C      -1.200539    0.000000   -2.099882
 C      -1.200539    0.000000   -0.713618
 H       2.132036    0.000000   -0.175819
 H       2.132036    0.000000   -2.637682
 H       0.000000    0.000000   -3.868613
 H      -2.132036    0.000000   -2.637682
 H      -2.132036    0.000000   -0.175819

