    10
 
 C         0.171158    1.094593    0.000000
 C        -0.679522    0.061220   -0.000000
 N         0.094391   -1.084351    0.000000
 C         1.364213   -0.754354    0.000000
 N         1.444076    0.555213   -0.000000
 H         2.297899    1.072365   -0.000000
 H        -0.002237    2.148238    0.000000
 H        -1.746848    0.028899   -0.000000
 H        -0.249039   -2.021641    0.000000
 H         2.190578   -1.434629    0.000000

