    8

 C     -1.036972    0.450872    0.000000
 S      0.619120    1.054356   -0.000000
 O     -1.351155   -0.685049    0.000001
 H     -1.762392    1.268713   -0.000000
 C      1.548911   -0.500530    0.000000
 H      2.596065   -0.229409   -0.000001
 H      1.317294   -1.075201    0.884576
 H      1.317293   -1.075202   -0.884575

