9

 C    -0.865517    0.417799    0.000000
 N     0.459341    0.647870    0.000000
 O    -1.371173   -0.661228    0.000000
 H    -1.457600    1.336425    0.000000
 C     1.429884   -0.429030    0.000000
 H     0.772171    1.588981    0.000000
 H     2.422937    0.001061   -0.000001
 H     1.315147   -1.052173    0.878731
 H     1.315145   -1.052175   -0.878729

