7

C           -0.092914    0.771679    0.000158
N           -0.102701    1.903282   -0.000034
S           -0.115436   -0.933093    0.000459
C            1.677325   -1.260633   -0.000074
H            1.771178   -2.338438    0.000081
H            2.133749   -0.853883   -0.889963
H            2.134334   -0.853576    0.889374

