   10
 
 C    -0.028868     0.664415    -0.215235  0.182722
 N    -0.010216     1.795184    -0.207483 -0.319392
 S    -0.088966    -1.038293    -0.234385  0.104180
 C     1.673160    -1.404948     0.060773 -0.487731
 H     1.983417    -1.011560     1.016975  0.170501
 H     2.279093    -1.005491    -0.738364  0.168690
 H     1.740677    -2.484557     0.068488  0.162510
 O     0.504173     4.908828     0.302910 -0.585826
 H     0.370961     3.980757     0.188144  0.353395
 H    -0.136477     5.328079    -0.243608  0.250719
