16

 C     2.880728   -0.014826    0.000000
 H     3.270071   -1.026695    0.000001
 H     3.274070    0.492041   -0.876639
 C     1.369278   -0.014039    0.000000
 H     3.274070    0.492043    0.876638
 C     0.656122    1.184626    0.000000
 C    -0.722529    1.209681    0.000000
 C    -1.433293    0.016760    0.000000
 C    -0.750784   -1.182955    0.000000
 C     0.639801   -1.188915    0.000000
 H     1.191843    2.118943    0.000000
 H    -1.261543    2.139230    0.000000
 O    -2.784536    0.092368    0.000000
 H    -1.291070   -2.115030    0.000000
 H     1.151923   -2.135556    0.000000
 H    -3.169015   -0.765902    0.000000

