12

C        2.509309   -0.089232    1.235545
N        1.201330   -0.273557    1.830349
C        0.099793    0.317550    1.319602
C       -1.203090    0.041056    2.037998
O        0.143176    1.022645    0.352395
H        2.793603    0.956153    1.240674
H       -1.894187   -0.406292    1.333434
H        1.113357   -0.848101    2.632351
H       -1.093366   -0.612883    2.895483
H       -1.623251    0.986271    2.360767
H        3.231889   -0.654164    1.810754
H        2.521956   -0.440072    0.210640

