16

 C   -2.745869  0.746448  0.477374
 N   -2.454915 -0.459193 -0.331008
 N   -1.409503 -1.042352 -0.112083
 N   -0.479932 -1.690089  0.003958
 H   -2.922673  0.472127  1.522026
 H   -3.655972  1.177457  0.066986
 H   -1.921610  1.458636  0.405865
 O    2.503983 -1.556658 -0.099244
 H    1.544126 -1.682714 -0.173116
 H    2.802219 -2.220677  0.530122
 O    2.758736  1.175024  0.345855
 H    2.786102  0.207305  0.202165
 H    3.584139  1.524497 -0.001055
 O    0.157132  1.979022 -0.371466
 H    1.073851  1.782993 -0.095744
 H    0.236672  2.364025 -1.248723

