12

 N       0.217708   -0.396201    0.222581
 C      -0.112165    0.167054    1.400754
 C       1.486012   -0.133566   -0.415895
 C      -0.695321   -1.293969   -0.453518
 O      -1.133793    0.005757    1.995592
 H       0.674147    0.818674    1.788232
 H       1.340082    0.315038   -1.394792
 H       2.072641    0.548163    0.186622
 H       2.052685   -1.052180   -0.541639
 H      -0.953517   -0.903751   -1.434381
 H      -0.240064   -2.272599   -0.580211
 H      -1.593209   -1.394605    0.135177

